Version 4.1
SHEET 1 1192 1876
WIRE 48 -1760 48 -1776
WIRE 160 -1760 160 -1776
WIRE 160 -1760 48 -1760
WIRE 48 -1744 48 -1760
WIRE 48 -1632 16 -1632
WIRE 160 -1632 112 -1632
WIRE 192 -1632 160 -1632
WIRE 320 -1632 256 -1632
WIRE 352 -1632 320 -1632
WIRE 480 -1632 416 -1632
WIRE 976 -1568 976 -1584
WIRE -160 -1552 -176 -1552
WIRE -64 -1552 -80 -1552
WIRE 16 -1552 16 -1632
WIRE 16 -1552 -64 -1552
WIRE 48 -1552 16 -1552
WIRE 160 -1552 160 -1632
WIRE 160 -1552 128 -1552
WIRE 192 -1552 160 -1552
WIRE 320 -1552 320 -1632
WIRE 320 -1552 272 -1552
WIRE 352 -1552 320 -1552
WIRE 480 -1552 480 -1632
WIRE 480 -1552 432 -1552
WIRE 576 -1552 480 -1552
WIRE 736 -1552 576 -1552
WIRE 832 -1552 832 -1568
WIRE -176 -1536 -176 -1552
WIRE -64 -1536 -64 -1552
WIRE 576 -1536 576 -1552
WIRE 16 -1520 16 -1552
WIRE 160 -1520 160 -1552
WIRE 320 -1520 320 -1552
WIRE 480 -1520 480 -1552
WIRE 736 -1440 736 -1552
WIRE 832 -1440 832 -1472
WIRE 832 -1440 736 -1440
WIRE 864 -1440 832 -1440
WIRE 976 -1440 976 -1488
WIRE 976 -1440 944 -1440
WIRE 1008 -1440 976 -1440
WIRE -176 -1424 -176 -1456
WIRE -176 -1424 -208 -1424
WIRE -64 -1424 -64 -1456
WIRE -16 -1424 -64 -1424
WIRE 16 -1424 16 -1456
WIRE 160 -1424 160 -1456
WIRE 160 -1424 16 -1424
WIRE 240 -1424 160 -1424
WIRE 320 -1424 320 -1456
WIRE 320 -1424 240 -1424
WIRE 480 -1424 480 -1456
WIRE 480 -1424 320 -1424
WIRE 576 -1424 576 -1456
WIRE 656 -1424 576 -1424
WIRE 1120 -1424 1072 -1424
WIRE 240 -1408 240 -1424
WIRE 832 -1408 736 -1408
WIRE 864 -1408 832 -1408
WIRE 976 -1408 944 -1408
WIRE 1008 -1408 976 -1408
WIRE -176 -1392 -176 -1424
WIRE -64 -1392 -64 -1424
WIRE 16 -1392 16 -1424
WIRE 160 -1392 160 -1424
WIRE 320 -1392 320 -1424
WIRE 480 -1392 480 -1424
WIRE 576 -1392 576 -1424
WIRE 832 -1376 832 -1408
WIRE -176 -1296 -176 -1312
WIRE -160 -1296 -176 -1296
WIRE -64 -1296 -64 -1312
WIRE -64 -1296 -80 -1296
WIRE 16 -1296 16 -1328
WIRE 16 -1296 -64 -1296
WIRE 48 -1296 16 -1296
WIRE 160 -1296 160 -1328
WIRE 160 -1296 128 -1296
WIRE 192 -1296 160 -1296
WIRE 320 -1296 320 -1328
WIRE 320 -1296 272 -1296
WIRE 352 -1296 320 -1296
WIRE 480 -1296 480 -1328
WIRE 480 -1296 432 -1296
WIRE 576 -1296 576 -1312
WIRE 576 -1296 480 -1296
WIRE 736 -1296 736 -1408
WIRE 736 -1296 576 -1296
WIRE 976 -1296 976 -1408
WIRE 1008 -1296 976 -1296
WIRE 1120 -1296 1120 -1424
WIRE 1120 -1296 1088 -1296
WIRE 832 -1280 832 -1296
WIRE 16 -1216 16 -1296
WIRE 48 -1216 16 -1216
WIRE 160 -1216 160 -1296
WIRE 160 -1216 112 -1216
WIRE 192 -1216 160 -1216
WIRE 320 -1216 320 -1296
WIRE 320 -1216 256 -1216
WIRE 352 -1216 320 -1216
WIRE 480 -1216 480 -1296
WIRE 480 -1216 416 -1216
WIRE 288 -1152 192 -1152
WIRE 384 -1152 368 -1152
WIRE -16 -1136 -16 -1424
WIRE 240 -1088 192 -1088
WIRE 384 -1088 384 -1152
WIRE 384 -1088 304 -1088
WIRE -16 -1008 -16 -1056
WIRE 384 -976 384 -1088
WIRE 384 -976 304 -976
WIRE 656 -976 656 -1424
WIRE 656 -976 384 -976
WIRE 64 -960 48 -960
WIRE 192 -960 192 -1088
WIRE 192 -960 144 -960
WIRE 240 -960 192 -960
WIRE 384 -944 304 -944
WIRE 384 -896 384 -944
WIRE -16 -880 -16 -912
FLAG -176 -1776 0
FLAG -176 -1856 Vctrl
FLAG 976 -1584 0
FLAG 832 -1280 0
FLAG 832 -1568 0
FLAG 240 -1408 0
FLAG 48 -1744 0
FLAG 48 -1856 +5V
FLAG 1040 -1392 +5V
FLAG 1040 -1456 -5V
FLAG 160 -1856 -5V
FLAG -208 -1424 0
FLAG 272 -992 +5V
FLAG 272 -928 -5V
FLAG 384 -896 0
FLAG -16 -880 -5V
SYMBOL res -80 -1552 R0
SYMATTR InstName R1
SYMATTR Value 49.9
SYMBOL cap 0 -1520 R0
SYMATTR InstName C1
SYMATTR Value 56p
SYMBOL cap 144 -1520 R0
SYMATTR InstName C2
SYMATTR Value 100p
SYMBOL cap 304 -1520 R0
SYMATTR InstName C3
SYMATTR Value 100p
SYMBOL ind 32 -1536 R270
WINDOW 0 32 56 VTop 2
WINDOW 3 5 56 VBottom 2
SYMATTR InstName L1
SYMATTR Value 160n
SYMATTR SpiceLine Ipk=0.6 Rser=600m Cpar=0
SYMBOL cap 464 -1520 R0
SYMATTR InstName C4
SYMATTR Value 62p
SYMBOL ind 336 -1536 R270
WINDOW 0 32 56 VTop 2
WINDOW 3 5 56 VBottom 2
SYMATTR InstName L2
SYMATTR Value 180n
SYMATTR SpiceLine Ipk=0.4 Rser=640m Cpar=0
SYMBOL cap 112 -1648 R90
WINDOW 0 0 32 VBottom 2
WINDOW 3 32 32 VTop 2
SYMATTR InstName C5
SYMATTR Value 6.8p
SYMBOL cap 192 -1616 R270
WINDOW 0 32 32 VTop 2
WINDOW 3 0 32 VBottom 2
SYMATTR InstName C6
SYMATTR Value 9.1p
SYMBOL cap 416 -1648 R90
WINDOW 0 0 32 VBottom 2
WINDOW 3 32 32 VTop 2
SYMATTR InstName C7
SYMATTR Value 2p
SYMBOL ind 176 -1536 R270
WINDOW 0 32 56 VTop 2
WINDOW 3 5 56 VBottom 2
SYMATTR InstName L3
SYMATTR Value 180n
SYMATTR SpiceLine Ipk=0.6 Rser=0.6 Cpar=0
SYMBOL res -80 -1296 M180
WINDOW 0 36 76 Left 2
WINDOW 3 36 40 Left 2
SYMATTR InstName R3
SYMATTR Value 49.9
SYMBOL cap 0 -1328 M180
WINDOW 0 24 56 Left 2
WINDOW 3 24 8 Left 2
SYMATTR InstName C8
SYMATTR Value 56p
SYMBOL cap 144 -1328 M180
WINDOW 0 24 56 Left 2
WINDOW 3 24 8 Left 2
SYMATTR InstName C9
SYMATTR Value 100p
SYMBOL cap 304 -1328 M180
WINDOW 0 24 56 Left 2
WINDOW 3 24 8 Left 2
SYMATTR InstName C10
SYMATTR Value 100p
SYMBOL ind 32 -1312 M90
WINDOW 0 5 56 VBottom 2
WINDOW 3 32 56 VTop 2
SYMATTR InstName L4
SYMATTR Value 160n
SYMATTR SpiceLine Ipk=0.6 Rser=600m Cpar=0
SYMBOL cap 464 -1328 M180
WINDOW 0 24 56 Left 2
WINDOW 3 24 8 Left 2
SYMATTR InstName C11
SYMATTR Value 62p
SYMBOL ind 336 -1312 M90
WINDOW 0 5 56 VBottom 2
WINDOW 3 32 56 VTop 2
SYMATTR InstName L5
SYMATTR Value 180n
SYMATTR SpiceLine Ipk=0.4 Rser=640m Cpar=0
SYMBOL cap 112 -1200 M270
WINDOW 0 32 32 VTop 2
WINDOW 3 0 32 VBottom 2
SYMATTR InstName C12
SYMATTR Value 6.8p
SYMBOL cap 192 -1232 M90
WINDOW 0 0 32 VBottom 2
WINDOW 3 32 32 VTop 2
SYMATTR InstName C13
SYMATTR Value 9.1p
SYMBOL cap 416 -1200 M270
WINDOW 0 32 32 VTop 2
WINDOW 3 0 32 VBottom 2
SYMATTR InstName C14
SYMATTR Value 2p
SYMBOL ind 176 -1312 M90
WINDOW 0 5 56 VBottom 2
WINDOW 3 32 56 VTop 2
SYMATTR InstName L6
SYMATTR Value 180n
SYMATTR SpiceLine Ipk=0.6 Rser=0.6 Cpar=0
SYMBOL bi -176 -1456 R180
WINDOW 0 24 80 Left 2
WINDOW 3 -129 166 Left 2
SYMATTR InstName B1
SYMATTR Value I=IFS/2*(1 + V(Vctrl) )
SYMBOL voltage -176 -1872 R0
WINDOW 3 -70 135 Left 2
WINDOW 123 0 0 Left 0
WINDOW 39 0 0 Left 0
SYMATTR Value SINE(0 1 10Meg)
SYMATTR InstName V1
SYMBOL bi -176 -1392 R0
WINDOW 3 -149 189 Left 2
SYMATTR Value I=IFS- IFS/2*(1 + V(Vctrl) )
SYMATTR InstName B2
SYMBOL res -64 -1568 R90
WINDOW 0 0 56 VBottom 2
WINDOW 3 32 56 VTop 2
SYMATTR InstName R5
SYMATTR Value 10Meg
SYMBOL res -64 -1312 R90
WINDOW 0 0 56 VBottom 2
WINDOW 3 32 56 VTop 2
SYMATTR InstName R6
SYMATTR Value 10Meg
SYMBOL sym\\OPA695_a 1040 -1360 M180
SYMATTR InstName U1
SYMBOL res 1104 -1312 R90
WINDOW 0 0 56 VBottom 2
WINDOW 3 32 56 VTop 2
SYMATTR InstName R9
SYMATTR Value 442
SYMBOL res 992 -1472 R180
WINDOW 0 36 76 Left 2
WINDOW 3 36 40 Left 2
SYMATTR InstName R10
SYMATTR Value 442
SYMBOL res 848 -1456 R180
WINDOW 0 36 76 Left 2
WINDOW 3 36 40 Left 2
SYMATTR InstName R11
SYMATTR Value 53.6
SYMBOL res 848 -1280 R180
WINDOW 0 36 76 Left 2
WINDOW 3 36 40 Left 2
SYMATTR InstName R12
SYMATTR Value 226
SYMBOL voltage 48 -1872 R0
WINDOW 123 0 0 Left 0
WINDOW 39 0 0 Left 0
SYMATTR InstName V2
SYMATTR Value 5
SYMBOL voltage 160 -1872 R0
WINDOW 123 0 0 Left 0
WINDOW 39 0 0 Left 0
SYMATTR InstName V3
SYMATTR Value -5
SYMBOL res 960 -1456 R90
WINDOW 0 -1 84 VBottom 2
WINDOW 3 -26 32 VTop 2
SYMATTR InstName R2
SYMATTR Value 73.2
SYMBOL res 960 -1424 R90
WINDOW 0 67 84 VBottom 2
WINDOW 3 39 34 VTop 2
SYMATTR InstName R4
SYMATTR Value 73.2
SYMBOL res 560 -1552 R0
SYMATTR InstName R7
SYMATTR Value 2.7k
SYMBOL res 560 -1296 M180
WINDOW 0 36 76 Left 2
WINDOW 3 36 40 Left 2
SYMATTR InstName R8
SYMATTR Value 2.7k
SYMBOL OpAmps\\OP07 272 -1024 M0
SYMATTR InstName U2
SYMBOL Contrib\\Toshiba\\bjt\\TMBT3906 48 -912 R180
SYMATTR InstName U3
SYMBOL res -32 -1152 R0
SYMATTR InstName R13
SYMATTR Value 68
SYMBOL res 160 -976 R90
WINDOW 0 0 56 VBottom 2
WINDOW 3 32 56 VTop 2
SYMATTR InstName R14
SYMATTR Value 100
SYMBOL cap 304 -1104 R90
WINDOW 0 0 32 VBottom 2
WINDOW 3 32 32 VTop 2
SYMATTR InstName C15
SYMATTR Value 100n
SYMBOL cap 176 -1152 R0
SYMATTR InstName C16
SYMATTR Value 10n
SYMBOL res 384 -1168 R90
WINDOW 0 0 56 VBottom 2
WINDOW 3 32 56 VTop 2
SYMATTR InstName R15
SYMATTR Value 20k
TEXT -376 -1056 Left 2 !.tran 0 0.1u 0 1G
TEXT -376 -1096 Left 2 !.param IFS=20m
